481107351
  -OEChem-05182322272D

 28 27  0     1  0  0  0  0  0999 V2000
    5.6720    2.8285    0.0000 Cl  0  0  0  0  0  0  0  0  0  0  0  0
    2.2690    5.1200    0.0000 N   0  0  0  0  0  0  0  0  0  0  0  0
    2.2690    4.1200    0.0000 C   0  0  2  0  0  0  0  0  0  0  0  0
    1.4030    3.6200    0.0000 C   0  0  0  0  0  0  0  0  0  0  0  0
    1.4030    2.6200    0.0000 C   0  0  0  0  0  0  0  0  0  0  0  0
    3.1350    3.6200    0.0000 C   0  0  0  0  0  0  0  0  0  0  0  0
    0.5369    2.1200    0.0000 C   0  0  0  0  0  0  0  0  0  0  0  0
    2.2690    2.1200    0.0000 C   0  0  0  0  0  0  0  0  0  0  0  0
    3.1350    5.6200    0.0000 C   0  0  0  0  0  0  0  0  0  0  0  0
    0.5369    1.1200    0.0000 C   0  0  0  0  0  0  0  0  0  0  0  0
    2.2690    1.1200    0.0000 C   0  0  0  0  0  0  0  0  0  0  0  0
    1.4030    0.6200    0.0000 C   0  0  0  0  0  0  0  0  0  0  0  0
    2.8059    4.4300    0.0000 H   0  0  0  0  0  0  0  0  0  0  0  0
    1.1909    4.2026    0.0000 H   0  0  0  0  0  0  0  0  0  0  0  0
    0.7924    3.5123    0.0000 H   0  0  0  0  0  0  0  0  0  0  0  0
    2.8250    3.0831    0.0000 H   0  0  0  0  0  0  0  0  0  0  0  0
    3.6720    3.3100    0.0000 H   0  0  0  0  0  0  0  0  0  0  0  0
    3.4450    4.1569    0.0000 H   0  0  0  0  0  0  0  0  0  0  0  0
    1.7320    5.4300    0.0000 H   0  0  0  0  0  0  0  0  0  0  0  0
    0.0000    2.4300    0.0000 H   0  0  0  0  0  0  0  0  0  0  0  0
    2.8059    2.4300    0.0000 H   0  0  0  0  0  0  0  0  0  0  0  0
    3.4450    5.0831    0.0000 H   0  0  0  0  0  0  0  0  0  0  0  0
    3.6720    5.9300    0.0000 H   0  0  0  0  0  0  0  0  0  0  0  0
    2.8250    6.1569    0.0000 H   0  0  0  0  0  0  0  0  0  0  0  0
    0.0000    0.8100    0.0000 H   0  0  0  0  0  0  0  0  0  0  0  0
    2.8059    0.8100    0.0000 H   0  0  0  0  0  0  0  0  0  0  0  0
    1.4030    0.0000    0.0000 H   0  0  0  0  0  0  0  0  0  0  0  0
    6.6720    2.8285    0.0000 H   0  0  0  0  0  0  0  0  0  0  0  0
  1 28  1  0  0  0  0
  3  2  1  1  0  0  0
  2  9  1  0  0  0  0
  2 19  1  0  0  0  0
  3  4  1  0  0  0  0
  3  6  1  0  0  0  0
  3 13  1  0  0  0  0
  4  5  1  0  0  0  0
  4 14  1  0  0  0  0
  4 15  1  0  0  0  0
  5  7  2  0  0  0  0
  5  8  1  0  0  0  0
  6 16  1  0  0  0  0
  6 17  1  0  0  0  0
  6 18  1  0  0  0  0
  7 10  1  0  0  0  0
  7 20  1  0  0  0  0
  8 11  2  0  0  0  0
  8 21  1  0  0  0  0
  9 22  1  0  0  0  0
  9 23  1  0  0  0  0
  9 24  1  0  0  0  0
 10 12  2  0  0  0  0
 10 25  1  0  0  0  0
 11 12  1  0  0  0  0
 11 26  1  0  0  0  0
 12 27  1  0  0  0  0
M  END
> <PUBCHEM_COMPOUND_ID_TYPE>
0

> <PUBCHEM_SUBSTANCE_ID>
481107351

> <PUBCHEM_SUBSTANCE_VERSION>
1

> <PUBCHEM_EXT_DATASOURCE_NAME>
26136

> <PUBCHEM_EXT_DATASOURCE_REGID>
6011

> <PUBCHEM_SUBSTANCE_SYNONYM>
Methamphetamine Hydrochloride
Desoxyn
Methampex
997F43Z9CV
Benzeneethanamine, N,alpha-dimethyl-, hydrochloride
(+)-N,alpha-Dimethylphenethylamine hydrochloride
(2S)-N-Methyl-1-phenylpropan-2-amine monohydrochloride
Benzeneethanamine, N,alpha-dimethyl-, hydrochloride, (S)-
CHEBI:35340
D-O-E
Methamphetamine HCl
Methamphetaminium chloride
d-Methaphetamine hydrochloride
d-N-Methyl-beta-phenylisopropylamine Hydrochloride
(+)-(S)-N,alpha-DIMETHYLPHENETHYLAMINE HYDROCHLORIDE
(+)-2-Methylamino-2-phenylpropane hydrochloride
(+)-Methamphetamine chloride
(+)-Methylamphetamine hydrochloride
(2S)-N-methyl-1-phenylpropan-2-amine hydrochloride
(S)-(+)-methamphetamine hydrochloride
AI3-20155
Adipex
Benzeneethanamine, N,alpha-dimethyl-, hydrochloride, (alphaS)-
Chestox
DOE
Dee Dex 10
Dee-10
Dee-5
Deofed
Des-O-E
Desepin
Desodex
Desoxo-5
Desoxyne
Desyphed
Dexstim
Dextim
Dosoxy
Doxyfed
EINECS 200-106-9
Eufodrinal
Gerovit
Hydrochloride, Methamphetamine
Hyphet
METAMFETAMINE HYDROCHLORIDE
METAMFETAMINE HYDROCHLORIDE (MART.)
METHAMPHETAMINE HYDROCHLORIDE (USP MONOGRAPH)
METHAMPHETAMINE HYDROCHLORIDE CII
METHAMPHETAMINE HYDROCHLORIDE CII (USP-RS)
Metamphetamine hydrochloride
Methaphetaminium chloride
Methedrine hydrochloride
N-Methylamphetamine hydrochloride
N-methyl-1-phenyl-propan-2-amine
NSC 169505
NSC-169505
NSC169505
Norodin hydrochloride
Obedrin-LA
Phenethylamine, N,alpha-dimethyl-, hydrochloride, (+)-
Phenethylamine, N,alpha-dimethyl-, hydrochloride, (S)-(+)-
Philopon
Semoxydrine hydrochloride
UNII-997F43Z9CV
d-Deoxyephedrine hydrochloride
d-Desoxyephedrine hydrochloride
d-Methamphetamine hydrochloride
d-Methylamphetamine hydrochloride
d-N,alpha-Dimethylphenethylamine hydrochloride
methamphetamine hydrogen chloride

> <PUBCHEM_CID_ASSOCIATIONS>
66124  1
313  2
10836  2

> <PUBCHEM_COORDINATE_TYPE>
1
5
255

> <PUBCHEM_BONDANNOTATIONS>
10  12  8
11  12  8
3  2  5
5  7  8
5  8  8
7  10  8
8  11  8

